*EXP.DETAILS: KMKM1601PT 

*GENERAL
@PEOPLE
 Kelly Morgan, L.C. Jones, J.W.(Should be changed to Farmers Name)
@ADDRESS
 UNIVERSITY OF FLORIDA, GAINESVILLE, FL, USA
@SITE
 KMF

*TREATMENTS                        -------------FACTOR LEVELS------------
@N R O C TNAME.................... CU FL SA IC MP MI MF MR MC MT ME MH SM
 1 1 1 0 KMKM1601_2016              1  1  0  0  1  1  1  0  0  0  0  0  1

*CULTIVARS
@C CR INGENO CNAME
 1 PT IB0005 -99

*FIELDS
@L ID_FIELD WSTA....  FLSA  FLOB  FLDT  FLDD  FLDS  FLST SLTX  SLDP  ID_SOIL     BDWD  BDHT PMALB FLNAME
 1 KMKM1601 KMK        -99   -99   -99   -99   -99   -99 -99    -99  FL00101098    10     1   -99 None
@L ...........XCRD ...........YCRD .....ELEV .............AREA .SLEN .FLWR .SLAS FLHST FHDUR
 1          -82.35           29.68       -99               -99   -99   -99   -99   -99   -99

*PLANTING DETAILS
@P PDATE EDATE  PPOP  PPOE  PLME  PLDS  PLRS  PLRD  PLDP  PLWT  PAGE  PENV  PLPH  SPRL                        PLNAME
 1 16031   -99  1823  1823     C   -99    1    -99    1    -99   -99   -99   -99   -99                        -99

*IRRIGATION AND WATER MANAGEMENT
@I  EFIR  IDEP  ITHR  IEPT  IOFF  IAME  IAMT IRSPC IROFS IRDEP IRNAME
 1   0.9   -99   -99   -99   -99   -99   -99   -99   -99   -99   -99
@I IDATE  IROP IRVAL  IRSTR  IRDUR  IRINT  IRNUM
 1 16031 IR005     1    12 22:03 22:03 22:03
 1 16031 IR007     1    14 22:03 22:03 22:03

*FERTILIZERS (INORGANIC)
@F FDATE  FMCD  FACD  FDEP  FAMN  FAMP  FAMK  FAMC  FAMO  FOCD FERNAME
 1 16031 FE001 Applied in irrigation water   -99    13   -99   -99   -99   -99   -99 -99

*SIMULATION CONTROLS
@N GENERAL     NYERS NREPS START SDATE RSEED SNAME.................... SMODEL
 1 GE              1     1     S   -99  2150 DEFAULT SIMULATION CONTRL 
@N OPTIONS     WATER NITRO SYMBI PHOSP POTAS DISES  CHEM  TILL   CO2
 1 OP              Y     Y     Y     N     N     N     N     Y     M
@N METHODS     WTHER INCON LIGHT EVAPO INFIL PHOTO HYDRO NSWIT MESOM MESEV MESOL
 1 ME              M     M     E     R     S     L     R     1     P     S     2
@N MANAGEMENT  PLANT IRRIG FERTI RESID HARVS
 1 MA              R     R     R     R     M
@N OUTPUTS     FNAME OVVEW SUMRY FROPT GROUT CAOUT WAOUT NIOUT MIOUT DIOUT VBOSE CHOUT OPOUT
 1 OU              N     Y     Y     1     Y     Y     N     N     N     N     N     N     N

@  AUTOMATIC MANAGEMENT
@N PLANTING    PFRST PLAST PH2OL PH2OU PH2OD PSTMX PSTMN
 1 PL          82050 82064    40   100    30    40    10
@N IRRIGATION  IMDEP ITHRL ITHRU IROFF IMETH IRAMT IREFF
 1 IR             30    50   100 GS000 IR001    10  1.00
@N NITROGEN    NMDEP NMTHR NAMNT NCODE NAOFF
 1 NI             30    50    25 FE001 GS000
@N RESIDUES    RIPCN RTIME RIDEP
 1 RE            100     1    20
@N HARVEST     HFRST HLAST HPCNP HPCNR
 1 HA              0 83057   100     0

